
     RDKit          3D

216219  0  0  0  0  0  0  0  0999 V2000
    1.3265   -7.6462    2.7678 C   0  0  0  0  0  0  0  0  0  0  0  0
    1.9443   -8.6050    1.7646 C   0  0  0  0  0  0  0  0  0  0  0  0
    1.9825   -8.0572    0.3360 C   0  0  0  0  0  0  0  0  0  0  0  0
    2.8165   -6.7860    0.1351 C   0  0  0  0  0  0  0  0  0  0  0  0
    4.2666   -6.9308    0.6050 C   0  0  0  0  0  0  0  0  0  0  0  0
    5.1953   -5.8351    0.0759 C   0  0  0  0  0  0  0  0  0  0  0  0
    4.8387   -4.3887    0.4414 C   0  0  0  0  0  0  0  0  0  0  0  0
    5.4888   -3.8638    1.7252 C   0  0  0  0  0  0  0  0  0  0  0  0
    4.8484   -4.2946    3.0398 C   0  0  0  0  0  0  0  0  0  0  0  0
    3.5599   -3.5559    3.3674 C   0  0  0  0  0  0  0  0  0  0  0  0
    2.8151   -3.0585    2.5323 O   0  0  0  0  0  0  0  0  0  0  0  0
    3.2887   -3.5403    4.7213 N   0  0  0  0  0  0  0  0  0  0  0  0
    2.1335   -2.8169    5.2491 C   0  0  1  0  0  0  0  0  0  0  0  0
    1.7158   -3.3833    6.6197 C   0  0  0  0  0  0  0  0  0  0  0  0
    1.2385   -4.8011    6.5785 C   0  0  0  0  0  0  0  0  0  0  0  0
    1.9069   -5.9057    7.0694 C   0  0  0  0  0  0  0  0  0  0  0  0
    1.1301   -7.0103    6.8509 N   0  0  0  0  0  0  0  0  0  0  0  0
   -0.0464   -6.6526    6.2390 C   0  0  0  0  0  0  0  0  0  0  0  0
   -1.1248   -7.4464    5.8300 C   0  0  0  0  0  0  0  0  0  0  0  0
   -2.1957   -6.8072    5.1981 C   0  0  0  0  0  0  0  0  0  0  0  0
   -2.1888   -5.4303    4.9952 C   0  0  0  0  0  0  0  0  0  0  0  0
   -1.1056   -4.6493    5.4157 C   0  0  0  0  0  0  0  0  0  0  0  0
   -0.0073   -5.2717    6.0482 C   0  0  0  0  0  0  0  0  0  0  0  0
    2.4898   -1.3146    5.4171 C   0  0  0  0  0  0  0  0  0  0  0  0
    3.6091   -0.8566    5.1887 O   0  0  0  0  0  0  0  0  0  0  0  0
    1.4636   -0.5372    5.9207 N   0  0  0  0  0  0  0  0  0  0  0  0
    1.5585    0.9022    6.1969 C   0  0  1  0  0  0  0  0  0  0  0  0
    2.8609    1.4484    6.7938 C   0  0  0  0  0  0  0  0  0  0  0  0
    3.2357    0.9648    8.1755 C   0  0  0  0  0  0  0  0  0  0  0  0
    4.2137    1.4046    8.7783 O   0  0  0  0  0  0  0  0  0  0  0  0
    2.4661    0.0097    8.7633 N   0  0  0  0  0  0  0  0  0  0  0  0
    1.1405    1.7108    4.9630 C   0  0  0  0  0  0  0  0  0  0  0  0
    0.0136    2.1980    4.8660 O   0  0  0  0  0  0  0  0  0  0  0  0
    2.0825    1.8166    3.9704 N   0  0  0  0  0  0  0  0  0  0  0  0
    2.0064    2.8934    2.9826 C   0  0  1  0  0  0  0  0  0  0  0  0
    3.4083    3.2923    2.5018 C   0  0  0  0  0  0  0  0  0  0  0  0
    3.9758    4.3509    3.4063 C   0  0  0  0  0  0  0  0  0  0  0  0
    3.6755    4.5489    4.5746 O   0  0  0  0  0  0  0  0  0  0  0  0
    4.9262    5.0897    2.8048 O   0  0  0  0  0  0  0  0  0  0  0  0
    1.0695    2.6240    1.7769 C   0  0  0  0  0  0  0  0  0  0  0  0
    0.6380    1.5126    1.4829 O   0  0  0  0  0  0  0  0  0  0  0  0
    0.7792    3.7775    1.0743 N   0  0  0  0  0  0  0  0  0  0  0  0
   -0.0122    3.9123   -0.1762 C   0  0  0  0  0  0  0  0  0  0  0  0
   -1.5250    4.0357    0.1520 C   0  0  0  0  0  0  0  0  0  0  0  0
   -2.0299    2.8925    0.8881 O   0  0  0  0  0  0  0  0  0  0  0  0
   -1.9982    1.6577    0.3253 C   0  0  0  0  0  0  0  0  0  0  0  0
   -1.6244    1.4143   -0.8182 O   0  0  0  0  0  0  0  0  0  0  0  0
   -2.5114    0.5680    1.2896 C   0  0  1  0  0  0  0  0  0  0  0  0
   -1.5952   -0.5832    1.2133 N   0  0  0  0  0  0  0  0  0  0  0  0
   -1.6068   -1.5974    0.3062 C   0  0  0  0  0  0  0  0  0  0  0  0
   -0.4893   -1.9549   -0.1133 O   0  0  0  0  0  0  0  0  0  0  0  0
   -2.8213   -2.5216   -0.0073 C   0  0  1  0  0  0  0  0  0  0  0  0
   -2.7010   -3.6830    0.8853 N   0  0  0  0  0  0  0  0  0  0  0  0
   -2.1723   -4.9279    0.6909 C   0  0  0  0  0  0  0  0  0  0  0  0
   -2.2507   -5.7099    1.6451 O   0  0  0  0  0  0  0  0  0  0  0  0
   -1.6180   -5.3939   -0.6703 C   0  0  2  0  0  0  0  0  0  0  0  0
   -0.5401   -4.5167   -1.1355 N   0  0  0  0  0  0  0  0  0  0  0  0
    0.2707   -4.8238   -2.2049 C   0  0  0  0  0  0  0  0  0  0  0  0
    0.3023   -5.9261   -2.7401 O   0  0  0  0  0  0  0  0  0  0  0  0
    1.2177   -3.6995   -2.6639 C   0  0  0  0  0  0  0  0  0  0  0  0
    0.6411   -2.3556   -2.6186 N   0  0  0  0  0  0  0  0  0  0  0  0
   -0.4095   -2.0896   -3.4717 C   0  0  0  0  0  0  0  0  0  0  0  0
   -1.5608   -2.1844   -3.0525 O   0  0  0  0  0  0  0  0  0  0  0  0
   -0.0877   -1.3593   -4.7862 C   0  0  1  0  0  0  0  0  0  0  0  0
   -0.1658    0.0570   -4.4157 N   0  0  0  0  0  0  0  0  0  0  0  0
   -1.1691    0.9514   -4.6258 C   0  0  0  0  0  0  0  0  0  0  0  0
   -1.1040    2.0308   -4.0335 O   0  0  0  0  0  0  0  0  0  0  0  0
   -2.3125    0.6639   -5.6210 C   0  0  2  0  0  0  0  0  0  0  0  0
   -2.9884    1.9469   -5.8704 N   0  0  0  0  0  0  0  0  0  0  0  0
   -2.6017    2.9644   -6.6883 C   0  0  0  0  0  0  0  0  0  0  0  0
   -3.0827    4.0814   -6.4785 O   0  0  0  0  0  0  0  0  0  0  0  0
   -1.6924    2.7329   -7.9060 C   0  0  1  0  0  0  0  0  0  0  0  0
   -0.4043    2.1059   -7.5783 N   0  0  0  0  0  0  0  0  0  0  0  0
    0.7145    2.7268   -7.0961 C   0  0  0  0  0  0  0  0  0  0  0  0
    1.8108    2.2213   -7.3836 O   0  0  0  0  0  0  0  0  0  0  0  0
    0.6168    3.9518   -6.1629 C   0  0  1  0  0  0  0  0  0  0  0  0
    1.5091    3.6243   -5.0380 N   0  0  0  0  0  0  0  0  0  0  0  0
    1.4560    4.0300   -3.7363 C   0  0  0  0  0  0  0  0  0  0  0  0
    2.4467    3.8401   -3.0242 O   0  0  0  0  0  0  0  0  0  0  0  0
    0.1773    4.6726   -3.1916 C   0  0  0  0  0  0  0  0  0  0  0  0
    0.4515    5.5604   -2.0713 N   0  0  0  0  0  0  0  0  0  0  0  0
    0.5338    5.2412   -0.7528 C   0  0  0  0  0  0  0  0  0  0  0  0
    1.0367    6.0853    0.0031 O   0  0  0  0  0  0  0  0  0  0  0  0
    1.1450    5.2340   -6.8231 C   0  0  0  0  0  0  0  0  0  0  0  0
    0.1823    5.8700   -7.8268 C   0  0  0  0  0  0  0  0  0  0  0  0
    0.7096    7.2216   -8.3162 C   0  0  0  0  0  0  0  0  0  0  0  0
   -0.2377    7.8631   -9.2187 N   0  0  0  0  0  0  0  0  0  0  0  0
   -2.4535    1.9200   -8.9574 C   0  0  0  0  0  0  0  0  0  0  0  0
   -3.5180    2.7682   -9.5890 C   0  0  0  0  0  0  0  0  0  0  0  0
   -3.4356    3.9511   -9.8729 O   0  0  0  0  0  0  0  0  0  0  0  0
   -4.6316    2.0678   -9.8715 O   0  0  0  0  0  0  0  0  0  0  0  0
   -3.3422   -0.2937   -5.0374 C   0  0  0  0  0  0  0  0  0  0  0  0
    1.2515   -1.7024   -5.4237 C   0  0  0  0  0  0  0  0  0  0  0  0
    1.4412   -0.8231   -6.6252 C   0  0  0  0  0  0  0  0  0  0  0  0
    0.6429   -0.6835   -7.5407 O   0  0  0  0  0  0  0  0  0  0  0  0
    2.5654   -0.0946   -6.5385 O   0  0  0  0  0  0  0  0  0  0  0  0
   -2.7805   -5.5245   -1.6771 C   0  0  0  0  0  0  0  0  0  0  0  0
   -2.6280   -6.6799   -2.5064 O   0  0  0  0  0  0  0  0  0  0  0  0
   -4.2916   -2.0662   -0.1063 C   0  0  0  0  0  0  0  0  0  0  0  0
   -4.9351   -1.6848    1.2318 C   0  0  0  0  0  0  0  0  0  0  0  0
   -4.5095   -1.0543   -1.2485 C   0  0  0  0  0  0  0  0  0  0  0  0
   -5.9647   -0.8676   -1.5995 C   0  0  0  0  0  0  0  0  0  0  0  0
   -6.9285   -1.3906   -1.0648 O   0  0  0  0  0  0  0  0  0  0  0  0
   -6.1295   -0.0104   -2.6263 O   0  0  0  0  0  0  0  0  0  0  0  0
   -2.6293    1.0502    2.7394 C   0  0  0  0  0  0  0  0  0  0  0  0
   -3.8341    1.9635    2.8899 C   0  0  0  0  0  0  0  0  0  0  0  0
   -4.8466    1.8234    2.2047 O   0  0  0  0  0  0  0  0  0  0  0  0
   -3.7764    3.0618    3.8960 C   0  0  0  0  0  0  0  0  0  0  0  0
   -3.1212    2.8516    5.1157 C   0  0  0  0  0  0  0  0  0  0  0  0
   -3.0422    3.8786    6.0573 C   0  0  0  0  0  0  0  0  0  0  0  0
   -3.6063    5.1193    5.7790 C   0  0  0  0  0  0  0  0  0  0  0  0
   -4.2621    5.3336    4.5635 C   0  0  0  0  0  0  0  0  0  0  0  0
   -4.4036    4.2975    3.6304 C   0  0  0  0  0  0  0  0  0  0  0  0
   -4.9647    4.6008    2.3699 N   0  0  0  0  0  0  0  0  0  0  0  0
   -2.4678    4.3422   -1.0113 C   0  0  0  0  0  0  0  0  0  0  0  0
    0.2839   -7.4352    2.5129 H   0  0  0  0  0  0  0  0  0  0  0  0
    1.8708   -6.6993    2.8197 H   0  0  0  0  0  0  0  0  0  0  0  0
    1.3448   -8.0953    3.7661 H   0  0  0  0  0  0  0  0  0  0  0  0
    2.9555   -8.8758    2.0923 H   0  0  0  0  0  0  0  0  0  0  0  0
    1.3635   -9.5350    1.7654 H   0  0  0  0  0  0  0  0  0  0  0  0
    0.9563   -7.8596   -0.0000 H   0  0  0  0  0  0  0  0  0  0  0  0
    2.3748   -8.8419   -0.3225 H   0  0  0  0  0  0  0  0  0  0  0  0
    2.8046   -6.5421   -0.9341 H   0  0  0  0  0  0  0  0  0  0  0  0
    2.3355   -5.9496    0.6506 H   0  0  0  0  0  0  0  0  0  0  0  0
    4.6600   -7.8943    0.2545 H   0  0  0  0  0  0  0  0  0  0  0  0
    4.3082   -6.9653    1.6975 H   0  0  0  0  0  0  0  0  0  0  0  0
    6.2224   -6.0564    0.3897 H   0  0  0  0  0  0  0  0  0  0  0  0
    5.1976   -5.9114   -1.0207 H   0  0  0  0  0  0  0  0  0  0  0  0
    5.2311   -3.7623   -0.3729 H   0  0  0  0  0  0  0  0  0  0  0  0
    3.7570   -4.2221    0.4402 H   0  0  0  0  0  0  0  0  0  0  0  0
    6.5432   -4.1670    1.7336 H   0  0  0  0  0  0  0  0  0  0  0  0
    5.4905   -2.7656    1.6826 H   0  0  0  0  0  0  0  0  0  0  0  0
    4.6431   -5.3680    3.0611 H   0  0  0  0  0  0  0  0  0  0  0  0
    5.5713   -4.0901    3.8403 H   0  0  0  0  0  0  0  0  0  0  0  0
    4.0753   -3.6660    5.3414 H   0  0  0  0  0  0  0  0  0  0  0  0
    1.3139   -2.8842    4.5257 H   0  0  0  0  0  0  0  0  0  0  0  0
    0.9115   -2.7775    7.0574 H   0  0  0  0  0  0  0  0  0  0  0  0
    2.5582   -3.3058    7.3218 H   0  0  0  0  0  0  0  0  0  0  0  0
    2.8710   -6.0027    7.5526 H   0  0  0  0  0  0  0  0  0  0  0  0
    1.3766   -7.9593    7.0999 H   0  0  0  0  0  0  0  0  0  0  0  0
   -1.1312   -8.5229    5.9730 H   0  0  0  0  0  0  0  0  0  0  0  0
   -3.0387   -7.3943    4.8406 H   0  0  0  0  0  0  0  0  0  0  0  0
   -3.0237   -4.9601    4.4815 H   0  0  0  0  0  0  0  0  0  0  0  0
   -1.1120   -3.5797    5.2355 H   0  0  0  0  0  0  0  0  0  0  0  0
    0.5258   -0.8723    5.7317 H   0  0  0  0  0  0  0  0  0  0  0  0
    0.7637    1.0803    6.9343 H   0  0  0  0  0  0  0  0  0  0  0  0
    3.7194    1.2764    6.1370 H   0  0  0  0  0  0  0  0  0  0  0  0
    2.7643    2.5387    6.8783 H   0  0  0  0  0  0  0  0  0  0  0  0
    2.8437   -0.3488    9.6332 H   0  0  0  0  0  0  0  0  0  0  0  0
    1.9511   -0.6448    8.1913 H   0  0  0  0  0  0  0  0  0  0  0  0
    2.8337    1.1313    3.9289 H   0  0  0  0  0  0  0  0  0  0  0  0
    1.5390    3.7430    3.5053 H   0  0  0  0  0  0  0  0  0  0  0  0
    4.0942    2.4374    2.4999 H   0  0  0  0  0  0  0  0  0  0  0  0
    3.3761    3.7022    1.4877 H   0  0  0  0  0  0  0  0  0  0  0  0
    5.2233    5.7222    3.4929 H   0  0  0  0  0  0  0  0  0  0  0  0
    1.1627    4.6606    1.4060 H   0  0  0  0  0  0  0  0  0  0  0  0
    0.2335    3.0642   -0.8185 H   0  0  0  0  0  0  0  0  0  0  0  0
   -1.6368    4.8725    0.8566 H   0  0  0  0  0  0  0  0  0  0  0  0
   -3.4821    0.2836    0.9070 H   0  0  0  0  0  0  0  0  0  0  0  0
   -0.6277   -0.2600    1.2989 H   0  0  0  0  0  0  0  0  0  0  0  0
   -2.5972   -2.8869   -1.0108 H   0  0  0  0  0  0  0  0  0  0  0  0
   -2.9488   -3.5365    1.8574 H   0  0  0  0  0  0  0  0  0  0  0  0
   -1.1607   -6.3799   -0.5140 H   0  0  0  0  0  0  0  0  0  0  0  0
   -0.4460   -3.6042   -0.7021 H   0  0  0  0  0  0  0  0  0  0  0  0
    2.0981   -3.7084   -2.0148 H   0  0  0  0  0  0  0  0  0  0  0  0
    1.5180   -3.9150   -3.6928 H   0  0  0  0  0  0  0  0  0  0  0  0
    0.3348   -2.1601   -1.6637 H   0  0  0  0  0  0  0  0  0  0  0  0
   -0.8838   -1.6000   -5.4962 H   0  0  0  0  0  0  0  0  0  0  0  0
    0.4590    0.3620   -3.6726 H   0  0  0  0  0  0  0  0  0  0  0  0
   -1.9073    0.2747   -6.5560 H   0  0  0  0  0  0  0  0  0  0  0  0
   -3.4772    2.3247   -5.0629 H   0  0  0  0  0  0  0  0  0  0  0  0
   -1.4492    3.7184   -8.3048 H   0  0  0  0  0  0  0  0  0  0  0  0
   -0.1513    1.2767   -8.1156 H   0  0  0  0  0  0  0  0  0  0  0  0
   -0.3944    4.0849   -5.7822 H   0  0  0  0  0  0  0  0  0  0  0  0
    2.3953    3.1926   -5.2813 H   0  0  0  0  0  0  0  0  0  0  0  0
   -0.4915    3.8843   -2.8610 H   0  0  0  0  0  0  0  0  0  0  0  0
   -0.3079    5.2840   -3.9556 H   0  0  0  0  0  0  0  0  0  0  0  0
    0.9643    6.4078   -2.2834 H   0  0  0  0  0  0  0  0  0  0  0  0
    1.3618    5.9739   -6.0396 H   0  0  0  0  0  0  0  0  0  0  0  0
    2.1017    5.0327   -7.3244 H   0  0  0  0  0  0  0  0  0  0  0  0
   -0.8003    6.0035   -7.3575 H   0  0  0  0  0  0  0  0  0  0  0  0
    0.0593    5.2053   -8.6869 H   0  0  0  0  0  0  0  0  0  0  0  0
    1.6626    7.0834   -8.8402 H   0  0  0  0  0  0  0  0  0  0  0  0
    0.9011    7.8871   -7.4701 H   0  0  0  0  0  0  0  0  0  0  0  0
   -0.4643    7.2371   -9.9906 H   0  0  0  0  0  0  0  0  0  0  0  0
   -1.1185    8.0311   -8.7312 H   0  0  0  0  0  0  0  0  0  0  0  0
   -2.9118    1.0294   -8.5148 H   0  0  0  0  0  0  0  0  0  0  0  0
   -1.7881    1.5854   -9.7604 H   0  0  0  0  0  0  0  0  0  0  0  0
   -5.2403    2.7242  -10.2761 H   0  0  0  0  0  0  0  0  0  0  0  0
   -3.6282    0.0167   -4.0275 H   0  0  0  0  0  0  0  0  0  0  0  0
   -2.9694   -1.3176   -4.9816 H   0  0  0  0  0  0  0  0  0  0  0  0
   -4.2514   -0.3136   -5.6483 H   0  0  0  0  0  0  0  0  0  0  0  0
    2.0800   -1.5460   -4.7223 H   0  0  0  0  0  0  0  0  0  0  0  0
    1.2844   -2.7467   -5.7497 H   0  0  0  0  0  0  0  0  0  0  0  0
    2.4784    0.6539   -7.1872 H   0  0  0  0  0  0  0  0  0  0  0  0
   -3.7413   -5.6357   -1.1628 H   0  0  0  0  0  0  0  0  0  0  0  0
   -2.8413   -4.6520   -2.3367 H   0  0  0  0  0  0  0  0  0  0  0  0
   -3.3172   -6.6461   -3.1892 H   0  0  0  0  0  0  0  0  0  0  0  0
   -4.8437   -2.9689   -0.4237 H   0  0  0  0  0  0  0  0  0  0  0  0
   -4.2051   -1.5719    2.0386 H   0  0  0  0  0  0  0  0  0  0  0  0
   -5.5184   -0.7625    1.1657 H   0  0  0  0  0  0  0  0  0  0  0  0
   -5.6268   -2.4743    1.5538 H   0  0  0  0  0  0  0  0  0  0  0  0
   -4.0243   -1.4359   -2.1546 H   0  0  0  0  0  0  0  0  0  0  0  0
   -4.0861   -0.0748   -1.0191 H   0  0  0  0  0  0  0  0  0  0  0  0
   -7.1037    0.0409   -2.7359 H   0  0  0  0  0  0  0  0  0  0  0  0
   -1.7145    1.5698    3.0395 H   0  0  0  0  0  0  0  0  0  0  0  0
   -2.7750    0.2015    3.4173 H   0  0  0  0  0  0  0  0  0  0  0  0
   -2.6574    1.8981    5.3491 H   0  0  0  0  0  0  0  0  0  0  0  0
   -2.5199    3.7164    6.9983 H   0  0  0  0  0  0  0  0  0  0  0  0
   -3.5203    5.9290    6.4994 H   0  0  0  0  0  0  0  0  0  0  0  0
   -4.6650    6.3218    4.3523 H   0  0  0  0  0  0  0  0  0  0  0  0
   -5.6618    5.3365    2.3970 H   0  0  0  0  0  0  0  0  0  0  0  0
   -5.3176    3.7530    1.9156 H   0  0  0  0  0  0  0  0  0  0  0  0
   -2.4645    3.5490   -1.7655 H   0  0  0  0  0  0  0  0  0  0  0  0
   -2.2245    5.2883   -1.4984 H   0  0  0  0  0  0  0  0  0  0  0  0
   -3.4986    4.4103   -0.6431 H   0  0  0  0  0  0  0  0  0  0  0  0
  1  2  1  0
  2  3  1  0
  3  4  1  0
  4  5  1  0
  5  6  1  0
  6  7  1  0
  7  8  1  0
  8  9  1  0
  9 10  1  0
 10 11  2  0
 10 12  1  0
 12 13  1  0
 13 14  1  0
 14 15  1  0
 15 16  2  0
 16 17  1  0
 17 18  1  0
 18 19  2  0
 19 20  1  0
 20 21  2  0
 21 22  1  0
 22 23  2  0
 13 24  1  0
 24 25  2  0
 24 26  1  0
 26 27  1  0
 27 28  1  0
 28 29  1  0
 29 30  2  0
 29 31  1  0
 27 32  1  0
 32 33  2  0
 32 34  1  0
 34 35  1  0
 35 36  1  0
 36 37  1  0
 37 38  2  0
 37 39  1  0
 35 40  1  0
 40 41  2  0
 40 42  1  0
 42 43  1  0
 43 44  1  0
 44 45  1  0
 45 46  1  0
 46 47  2  0
 46 48  1  0
 48 49  1  0
 49 50  1  0
 50 51  2  0
 50 52  1  0
 52 53  1  0
 53 54  1  0
 54 55  2  0
 54 56  1  0
 56 57  1  0
 57 58  1  0
 58 59  2  0
 58 60  1  0
 60 61  1  0
 61 62  1  0
 62 63  2  0
 62 64  1  0
 64 65  1  0
 65 66  1  0
 66 67  2  0
 66 68  1  0
 68 69  1  0
 69 70  1  0
 70 71  2  0
 70 72  1  0
 72 73  1  0
 73 74  1  0
 74 75  2  0
 74 76  1  0
 76 77  1  0
 77 78  1  0
 78 79  2  0
 78 80  1  0
 80 81  1  0
 81 82  1  0
 82 83  2  0
 76 84  1  0
 84 85  1  0
 85 86  1  0
 86 87  1  0
 72 88  1  0
 88 89  1  0
 89 90  2  0
 89 91  1  0
 68 92  1  0
 64 93  1  0
 93 94  1  0
 94 95  2  0
 94 96  1  0
 56 97  1  0
 97 98  1  0
 52 99  1  0
 99100  1  0
 99101  1  0
101102  1  0
102103  2  0
102104  1  0
 48105  1  0
105106  1  0
106107  2  0
106108  1  0
108109  2  0
109110  1  0
110111  2  0
111112  1  0
112113  2  0
113114  1  0
 44115  1  0
 23 15  1  0
 23 18  1  0
 82 43  1  0
113108  1  0
  1116  1  0
  1117  1  0
  1118  1  0
  2119  1  0
  2120  1  0
  3121  1  0
  3122  1  0
  4123  1  0
  4124  1  0
  5125  1  0
  5126  1  0
  6127  1  0
  6128  1  0
  7129  1  0
  7130  1  0
  8131  1  0
  8132  1  0
  9133  1  0
  9134  1  0
 12135  1  0
 13136  1  6
 14137  1  0
 14138  1  0
 16139  1  0
 17140  1  0
 19141  1  0
 20142  1  0
 21143  1  0
 22144  1  0
 26145  1  0
 27146  1  1
 28147  1  0
 28148  1  0
 31149  1  0
 31150  1  0
 34151  1  0
 35152  1  1
 36153  1  0
 36154  1  0
 39155  1  0
 42156  1  0
 43157  1  0
 44158  1  0
 48159  1  6
 49160  1  0
 52161  1  6
 53162  1  0
 56163  1  1
 57164  1  0
 60165  1  0
 60166  1  0
 61167  1  0
 64168  1  6
 65169  1  0
 68170  1  6
 69171  1  0
 72172  1  6
 73173  1  0
 76174  1  1
 77175  1  0
 80176  1  0
 80177  1  0
 81178  1  0
 84179  1  0
 84180  1  0
 85181  1  0
 85182  1  0
 86183  1  0
 86184  1  0
 87185  1  0
 87186  1  0
 88187  1  0
 88188  1  0
 91189  1  0
 92190  1  0
 92191  1  0
 92192  1  0
 93193  1  0
 93194  1  0
 96195  1  0
 97196  1  0
 97197  1  0
 98198  1  0
 99199  1  0
100200  1  0
100201  1  0
100202  1  0
101203  1  0
101204  1  0
104205  1  0
105206  1  0
105207  1  0
109208  1  0
110209  1  0
111210  1  0
112211  1  0
114212  1  0
114213  1  0
115214  1  0
115215  1  0
115216  1  0
M  END
